&NAMFPC
    CFPFMT         = "MODEL",

    NFP2DF         = 3,
    MFP2DF         = 129,134,152,

    NFPPHY         = 82,
    MFPPHY         = 8,31,32,33,34,35,36,37,38,39,40,41,42,44,45,49,50,57,58,59,78,79,123,129,136,137,139,141,142,143,144,145,146,147,148,151,159,164,165,166,167,168,169,170,172,175,176,177,178,179,180,181,182,183,186,187,188,189,195,196,197,198,201,202,205,208,209,210,211,212,213,228,229,230,231,232,235,236,238,243,244,245,

    NFP3DFS        = 11,
    MFP3DFS        = 54,129,130,131,132,133,135,157,246,247,248,
    NRFP3S         = 1,2,3,4,5,6,7,8,9,10,11,12,13,14,15,16,17,18,19,20,21,22,23,24,25,26,27,28,29,30,31,32,33,34,35,36,37,38,39,40,41,42,43,44,45,46,47,48,49,50,51,52,53,54,55,56,57,58,59,60,61,62,63,64,65,66,67,68,69,70,71,72,73,74,75,76,77,78,79,80,81,82,83,84,85,86,87,88,89,90,91,

    NFP3DFP        = 8,
    MFP3DFP        = 129,130,131,132,133,135,138,157,
    RFP3P          = 100000.,97500.,95000.,92500.,90000.,87500.,85000.,82500.,80000.,77500.,75000.,74000.,70000.,65000.,62000.,60000.,55000.,50000.,45000.,40000.,37500.,35000.,30000.,25000.,24500.,22500.,20000.,17500.,15000.,12500.,10000.,7000.,5000.,3000.,2000.,1000.,900.,700.,500.,300.,200.,100.,40.,
    RFPCORR        = 60000.,

    NFP3DFH        = 4,
    MFP3DFH        = 131,132,133,157,
    RFP3H          = 2.,50.,100.

    NFP3DFV        = 1,
    MFP3DFV        = 133,
    RFP3PV         = 2E-6,

    LFITP          = TRUE,
    LFITT          = FALSE,
    LFITV          = FALSE,
    NFPCLI         = 0,
    LFPQ           = FALSE,
    LASQ           = FALSE,
    LTRACEFP       = FALSE,
/
