&NAMFPC
    CFPFMT         = "MODEL",
    NFP3DFT        = 1,
    MFP3DFT        = 60,
    NFP3DFV        = 1,
    MFP3DFV        = 133,
    NFP2DF         = 3,
    MFP2DF         = 129,134,152,
    NFPPHY         = 33,
    MFPPHY         = 8,39,42,44,49,78,79,123,129,137,139,143,144,146,147,151,164,165,166,167,169,175,179,180,181,182,201,202,205,209,212,228,235
    NRFP3S         = 1,2,3,4,5,6,7,8,9,10,11,12,13,14,15,16,17,18,19,20,21,22,23,24,25,26,27,28,29,30,31,32,33,34,35,36,37,38,39,40,41,42,43,44,45,46,47,48,49,50,51,52,53,54,55,56,57,58,59,60,61,62,63,64,65,66,67,68,69,70,71,72,73,74,75,76,77,78,79,80,81,82,83,84,85,86,87,88,89,90,91
    NFP3DFS        = 11,
    MFP3DFS        = 54,129,130,131,132,133,135,157,246,247,248
    RFP3P          = 100000.,92500.,85000.,70000.,60000.,50000.,40000.,30000.,25000.,20000.,15000.,10000.,7000.,5000.,3000.,2000.,1000.,700.,500.,300.,200.,100.,
    RFPCORR        = 60000.,
    NFP3DFP        = 8,
    MFP3DFP        = 129,130,131,132,133,135,138,157,
    RFP3H          = 2.,
    NFP3DFH        = 2,
    MFP3DFH        = 133,157,
    LFITP          = TRUE,
    LFITT          = FALSE,
    LFITV          = FALSE,
    NFPCLI         = 0,
    LFPQ           = FALSE,
    LASQ           = FALSE,
    LTRACEFP       = FALSE,
/
